Distrib/IEEETest/IEEE13Nodeckt.dss
Clear 

!
! This script is based on a script developed by Tennessee Tech Univ students
! Tyler Patton, David Woods, and Jon Wood, April 2009
!

new circuit.IEEE13Nodeckt 
~ basekv=115 pu=1.000 phases=3 bus1=SourceBus  
~ Angle=30                      ! advance angle 30 deg so result agree with published angle
~ MVAsc3=200000 MVASC1=210000   ! stiffen the source to approximate inf source

!SUB TRANSFORMER DEFINITION 
! Although this data was given, it does not appear to be used in the test case results
! The published test case starts at 1.0 per unit at Bus 650. To make this happen, we will change the impedance
! on the transformer to something tiny by dividing by 1000 using the DSS in-line RPN math
New Transformer.Sub Phases=3 Windings=2   XHL=(8 1000 /) 
~ wdg=1 bus=SourceBus   conn=delta  kv=115  kva=5000   %r=(.5 1000 /)  XHT=4   
~ wdg=2 bus=650             conn=wye    kv=4.16  kva=5000   %r=(.5 1000 /)   XLT=4 


! FEEDER 1-PHASE VOLTAGE REGULATORS
! Define low-impedance 2-wdg transformer

New Transformer.Reg1 phases=1 XHL=0.01 kVAs=[1666 1666]
~ Buses=[650.1 RG60.1] kVs=[2.4  2.4] %LoadLoss=0.00001 taps=[1.0 1.0625]
new regcontrol.Reg1  transformer=Reg1 winding=2  vreg=122  band=2  ptratio=20 ctprim=700  R=3   X=9  

New Transformer.Reg2 phases=1 XHL=0.01 kVAs=[1666 1666]
~ Buses=[650.2 RG60.2] kVs=[2.4  2.4] %LoadLoss=0.00001 taps=[1.0 1.0500]
new regcontrol.Reg2  transformer=Reg2 winding=2  vreg=122  band=2  ptratio=20 ctprim=700  R=3   X=9 

New Transformer.Reg3 phases=1 XHL=0.01 kVAs=[1666 1666]
~ Buses=[650.3 RG60.3] kVs=[2.4  2.4] %LoadLoss=0.00001 taps=[1.0 1.06875]
new regcontrol.Reg3  transformer=Reg3 winding=2  vreg=122  band=2  ptratio=20 ctprim=700  R=3   X=9 


!TRANSFORMER DEFINITION 
New Transformer.XFM1  Phases=3   Windings=2  XHL=2
~ wdg=1 bus=633       conn=Wye kv=4.16    kva=500    %r=.55     XHT=1 
~ wdg=2 bus=634       conn=Wye kv=0.48    kva=500    %r=.55   XLT=1

!LINECODES
redirect IEEELineCodes.dss

!LOAD DEFINITIONS 
New Load.671 Bus1=671.1.2.3       Phases=3 Conn=Delta Model=1 kV=4.16   kW=1155 kvar=660 
New Load.634a Bus1=634.1   Phases=1 Conn=Wye  Model=1 kV=0.277  kW=160   kvar=110 
New Load.634b Bus1=634.2   Phases=1 Conn=Wye  Model=1 kV=0.277  kW=120   kvar=90 
New Load.634c Bus1=634.3   Phases=1 Conn=Wye  Model=1 kV=0.277  kW=120   kvar=90 
New Load.645 Bus1=645.2    Phases=1 Conn=Wye  Model=1 kV=2.4      kW=170   kvar=125 
New Load.646 Bus1=646.2.3    Phases=1 Conn=Delta Model=2 kV=4.16    kW=230   kvar=132 
New Load.692 Bus1=692.3.1    Phases=1 Conn=Delta Model=5 kV=4.16    kW=170   kvar=151 
New Load.675a Bus1=675.1  Phases=1 Conn=Wye  Model=1 kV=2.4  kW=485   kvar=190 
New Load.675b Bus1=675.2  Phases=1 Conn=Wye  Model=1 kV=2.4  kW=68   kvar=60 
New Load.675c Bus1=675.3  Phases=1 Conn=Wye  Model=1 kV=2.4  kW=290   kvar=212 
New Load.611 Bus1=611.3    Phases=1 Conn=Wye  Model=5 kV=2.4  kW=170   kvar=80 
New Load.652 Bus1=652.1    Phases=1 Conn=Wye  Model=2 kV=2.4  kW=128   kvar=86 
New Load.670a Bus1=670.1   Phases=1 Conn=Wye  Model=1 kV=2.4  kW=17    kvar=10 
New Load.670b Bus1=670.2   Phases=1 Conn=Wye  Model=1 kV=2.4  kW=66    kvar=38 
New Load.670c Bus1=670.3   Phases=1 Conn=Wye  Model=1 kV=2.4  kW=117  kvar=68 

!CAPACITOR DEFINITIONS
New Capacitor.Cap1 Bus1=675 phases=3 kVAR=600 kV=4.16 
New Capacitor.Cap2 Bus1=611.3 phases=1 kVAR=100 kV=2.4 

!Bus 670 is the concentrated point load of the distributed load on line 632 to 671 located at 1/3 the distance from node 632

!LINE DEFINITIONS 
New Line.650632    Phases=3 Bus1=RG60.1.2.3 Bus2=632.1.2.3 LineCode=601 Length=2.000 units=kft 
New Line.632670    Phases=3 Bus1=632.1.2.3    Bus2=670.1.2.3 LineCode=601 Length=.667 units=kft    
New Line.670671    Phases=3 Bus1=670.1.2.3    Bus2=671.1.2.3 LineCode=601 Length=1.333 units=kft 
New Line.671680    Phases=3 Bus1=671.1.2.3    Bus2=680.1.2.3 LineCode=601 Length=1.000 units=kft 
New Line.632633    Phases=3 Bus1=632.1.2.3    Bus2=633.1.2.3 LineCode=602 Length=.500   units=kft 
New Line.632645    Phases=2 Bus1=632.3.2       Bus2=645.3.2   LineCode=603 Length=.500   units=kft 
New Line.645646    Phases=2 Bus1=645.3.2       Bus2=646.3.2   LineCode=603 Length=.300   units=kft 
New Line.692675    Phases=3 Bus1=692.1.2.3    Bus2=675.1.2.3 LineCode=606 Length=.500  units=kft 
New Line.671684    Phases=2 Bus1=671.1.3      Bus2=684.1.3   LineCode=604 Length=.300  units=kft 
New Line.684611    Phases=1 Bus1=684.3       Bus2=611.3      LineCode=605 Length=.300  units=kft 
New Line.684652    Phases=1 Bus1=684.1       Bus2=652.1      LineCode=607 Length=.800  units=kft 

!SWITCH DEFINITIONS 
New Line.671692    Phases=3 Bus1=671   Bus2=692  Switch=y  r1=1e-4 r0=1e-4 x1=0.000 x0=0.000 c1=0.000 c0=0.000

Set Voltagebases=[115, 4.16, .48]
calcv
Solve

!---------------------------------------------------------------------------------------------------------------------------------------------------
!----------------Show some Results -----------------------------------------------------------------------------------------------------------------
!---------------------------------------------------------------------------------------------------------------------------------------------------


Show Voltages LN Nodes
Show Currents Elem
Show Powers kVA Elem
Show Losses
Show Taps

!---------------------------------------------------------------------------------------------------------------------------------------------------
!---------------------------------------------------------------------------------------------------------------------------------------------------
! Alternate Solution Script
! To force the taps to be same as published results, set the transformer taps manually and disable the controls
!---------------------------------------------------------------------------------------------------------------------------------------------------

!Transformer.Reg1.Taps=[1.0 1.0625]
!Transformer.Reg2.Taps=[1.0 1.0500]
!Transformer.Reg3.Taps=[1.0 1.06875]
!Set Controlmode=OFF
!Solve
